44472828
  -OEChem-09012620573D

 21 20  0     1  0  0  0  0  0999 V2000
   -0.0798   -0.5020    3.4612 P   0  0  2  0  0  0  0  0  0  0  0  0
   -0.0003   -0.5607   -3.3227 P   0  0  1  0  0  0  0  0  0  0  0  0
   -0.7249    0.3656    2.2387 O   0  0  0  0  0  0  0  0  0  0  0  0
    0.1163    2.6347   -0.4492 O   0  0  0  0  0  0  0  0  0  0  0  0
   -0.3240    0.4616   -2.0916 O   0  0  0  0  0  0  0  0  0  0  0  0
    0.7629   -0.6849   -0.4356 O   0  0  0  0  0  0  0  0  0  0  0  0
    0.9276   -1.4671    2.6102 O   0  0  0  0  0  0  0  0  0  0  0  0
   -1.0637    0.0274   -4.4140 O   0  0  0  0  0  0  0  0  0  0  0  0
   -1.1702   -1.3679    4.0539 O   0  5  0  0  0  0  0  0  0  0  0  0
    0.7517    0.3981    4.3493 O   0  0  0  0  0  0  0  0  0  0  0  0
    1.3998   -0.2955   -3.8312 O   0  5  0  0  0  0  0  0  0  0  0  0
   -0.4360   -1.9573   -2.9372 O   0  0  0  0  0  0  0  0  0  0  0  0
   -0.3703    1.4071    0.0709 C   0  0  2  0  0  0  0  0  0  0  0  0
    0.1047    1.2660    1.5121 C   0  0  0  0  0  0  0  0  0  0  0  0
    0.1062    0.2750   -0.8148 C   0  0  0  0  0  0  0  0  0  0  0  0
   -1.4664    1.4172    0.0471 H   0  0  0  0  0  0  0  0  0  0  0  0
    1.1517    0.9443    1.5531 H   0  0  0  0  0  0  0  0  0  0  0  0
    0.0550    2.2354    2.0210 H   0  0  0  0  0  0  0  0  0  0  0  0
   -0.2968    2.7675   -1.3196 H   0  0  0  0  0  0  0  0  0  0  0  0
    0.5475   -2.2422    2.1442 H   0  0  0  0  0  0  0  0  0  0  0  0
   -1.1053   -0.3938   -5.2989 H   0  0  0  0  0  0  0  0  0  0  0  0
  1  3  1  0  0  0  0
  1  7  1  0  0  0  0
  1  9  1  0  0  0  0
  1 10  2  0  0  0  0
  2  5  1  0  0  0  0
  2  8  1  0  0  0  0
  2 11  1  0  0  0  0
  2 12  2  0  0  0  0
  3 14  1  0  0  0  0
  4 13  1  0  0  0  0
  4 19  1  0  0  0  0
  5 15  1  0  0  0  0
  6 15  2  0  0  0  0
  7 20  1  0  0  0  0
  8 21  1  0  0  0  0
 13 14  1  0  0  0  0
 13 15  1  0  0  0  0
 13 16  1  0  0  0  0
 14 17  1  0  0  0  0
 14 18  1  0  0  0  0
M  CHG  2   9  -1  11  -1
M  END
> <PUBCHEM_COMPOUND_CID>
44472828

> <PUBCHEM_CONFORMER_RMSD>
0.8

> <PUBCHEM_CONFORMER_DIVERSEORDER>
6
16
11
29
28
9
22
33
21
37
14
24
34
25
42
8
41
31
32
1
40
13
5
18
27
4
30
17
7
26
35
23
12
39
10
19
3
20
38
36
15
2

> <PUBCHEM_MMFF94_PARTIAL_CHARGES>
18
1 1.44
10 -0.95
11 -0.95
12 -0.95
13 0.34
14 0.28
15 0.66
19 0.4
2 1.44
20 0.5
21 0.5
3 -0.55
4 -0.68
5 -0.42
6 -0.57
7 -0.77
8 -0.77
9 -0.95

> <PUBCHEM_EFFECTIVE_ROTOR_COUNT>
6

> <PUBCHEM_PHARMACOPHORE_FEATURES>
11
1 10 acceptor
1 11 acceptor
1 12 acceptor
1 4 acceptor
1 4 donor
1 6 acceptor
1 7 acceptor
1 8 acceptor
1 9 acceptor
4 1 7 9 10 anion
4 2 8 11 12 anion

> <PUBCHEM_HEAVY_ATOM_COUNT>
15

> <PUBCHEM_ATOM_DEF_STEREO_COUNT>
1

> <PUBCHEM_ATOM_UDEF_STEREO_COUNT>
0

> <PUBCHEM_BOND_DEF_STEREO_COUNT>
0

> <PUBCHEM_BOND_UDEF_STEREO_COUNT>
0

> <PUBCHEM_ISOTOPIC_ATOM_COUNT>
0

> <PUBCHEM_COMPONENT_COUNT>
1

> <PUBCHEM_CACTVS_TAUTO_COUNT>
1

> <PUBCHEM_CONFORMER_ID>
02A699FC00000006

> <PUBCHEM_MMFF94_ENERGY>
-21.7494

> <PUBCHEM_FEATURE_SELFOVERLAP>
55.908

> <PUBCHEM_SHAPE_FINGERPRINT>
10130415 120 15816685356505195429
10618630 7 15746878445547134560
11543360 7 14573719089406580786
12032990 46 15815839810498765957
12119455 92 11374800522301492197
124424 183 15453577074528754876
12932764 1 14433798628427208877
14252887 29 15964746721883237451
20281407 28 15671722410641463705
20281475 54 15668627268166010429
204376 136 9716083937663977628
20645477 70 15382645466413007270
20671657 53 15447116219829557136
20871998 22 15966717003759762168
21524375 3 9069272007704697145
22094290 60 14142772086789571892
22485316 2 15378426511326931731
23402539 116 15380957578461875136
23463225 33 15817248310711314344
4990 188 12696581049788616107
7364860 26 15597700109536863841

> <PUBCHEM_SHAPE_MULTIPOLES>
257.7
8.39
1.81
0.99
0.17
0.56
-0.05
-3.48
0.47
0.14
0.07
-0.12
-0.21
-0.21

> <PUBCHEM_SHAPE_SELFOVERLAP>
475.093

> <PUBCHEM_SHAPE_VOLUME>
162.8

> <PUBCHEM_COORDINATE_TYPE>
2
5
10

$$$$
