7058055
  -OEChem-09012620573D

 39 41  0     1  0  0  0  0  0999 V2000
    3.2788   -0.3624    1.1394 P   0  0  2  0  0  0  0  0  0  0  0  0
    4.5383    1.2481   -1.0247 P   0  0  0  0  0  0  0  0  0  0  0  0
   -0.9728   -1.6408    1.0903 O   0  0  0  0  0  0  0  0  0  0  0  0
   -2.7330   -3.0127   -1.7275 O   0  0  0  0  0  0  0  0  0  0  0  0
   -1.1073   -4.4489   -0.0905 O   0  0  0  0  0  0  0  0  0  0  0  0
    1.7091   -0.8243    1.1490 O   0  0  0  0  0  0  0  0  0  0  0  0
    3.3004    0.4573   -0.2753 O   0  0  0  0  0  0  0  0  0  0  0  0
    4.1616   -1.5847    1.0094 O   0  5  0  0  0  0  0  0  0  0  0  0
    3.4869    0.6254    2.2668 O   0  0  0  0  0  0  0  0  0  0  0  0
    3.9123    1.8001   -2.3012 O   0  5  0  0  0  0  0  0  0  0  0  0
    5.5783    0.1574   -1.2584 O   0  5  0  0  0  0  0  0  0  0  0  0
    4.9641    2.3144   -0.0209 O   0  0  0  0  0  0  0  0  0  0  0  0
   -2.8181   -0.4635    0.1744 N   0  0  0  0  0  0  0  0  0  0  0  0
   -4.4680    1.0280   -0.0024 N   0  0  0  0  0  0  0  0  0  0  0  0
   -0.9084    1.0370    0.2386 N   0  0  0  0  0  0  0  0  0  0  0  0
   -1.6072    3.3706    0.0905 N   0  0  0  0  0  0  0  0  0  0  0  0
   -3.9049    4.0147   -0.0908 N   0  0  0  0  0  0  0  0  0  0  0  0
   -1.6938   -2.3279   -1.0583 C   0  0  2  0  0  0  0  0  0  0  0  0
   -0.5643   -3.2412   -0.6240 C   0  0  1  0  0  0  0  0  0  0  0  0
   -2.1549   -1.7614    0.2759 C   0  0  1  0  0  0  0  0  0  0  0  0
    0.0778   -2.4478    0.5096 C   0  0  1  0  0  0  0  0  0  0  0  0
    1.1864   -1.5206    0.0313 C   0  0  0  0  0  0  0  0  0  0  0  0
   -2.2200    0.7657    0.1617 C   0  0  0  0  0  0  0  0  0  0  0  0
   -4.1688   -0.2520    0.0728 C   0  0  0  0  0  0  0  0  0  0  0  0
   -3.2593    1.6756    0.0521 C   0  0  0  0  0  0  0  0  0  0  0  0
   -2.9146    3.0231    0.0174 C   0  0  0  0  0  0  0  0  0  0  0  0
   -0.6987    2.3708    0.1950 C   0  0  0  0  0  0  0  0  0  0  0  0
   -1.3134   -1.5382   -1.7165 H   0  0  0  0  0  0  0  0  0  0  0  0
    0.1144   -3.5102   -1.4383 H   0  0  0  0  0  0  0  0  0  0  0  0
   -2.8541   -2.4303    0.7930 H   0  0  0  0  0  0  0  0  0  0  0  0
    0.4542   -3.0951    1.3098 H   0  0  0  0  0  0  0  0  0  0  0  0
    0.8174   -0.7810   -0.6846 H   0  0  0  0  0  0  0  0  0  0  0  0
    1.9777   -2.1036   -0.4515 H   0  0  0  0  0  0  0  0  0  0  0  0
   -3.0271   -3.7436   -1.1578 H   0  0  0  0  0  0  0  0  0  0  0  0
   -0.3613   -4.9895    0.2206 H   0  0  0  0  0  0  0  0  0  0  0  0
   -4.8810   -1.0656    0.0575 H   0  0  0  0  0  0  0  0  0  0  0  0
    0.3383    2.6844    0.2508 H   0  0  0  0  0  0  0  0  0  0  0  0
   -4.8812    3.7579   -0.1446 H   0  0  0  0  0  0  0  0  0  0  0  0
   -3.6294    4.9871   -0.1129 H   0  0  0  0  0  0  0  0  0  0  0  0
  1  6  1  0  0  0  0
  1  7  1  0  0  0  0
  1  8  1  0  0  0  0
  1  9  2  0  0  0  0
  2  7  1  0  0  0  0
  2 10  1  0  0  0  0
  2 11  1  0  0  0  0
  2 12  2  0  0  0  0
  3 20  1  0  0  0  0
  3 21  1  0  0  0  0
  4 18  1  0  0  0  0
  4 34  1  0  0  0  0
  5 19  1  0  0  0  0
  5 35  1  0  0  0  0
  6 22  1  0  0  0  0
 13 20  1  0  0  0  0
 13 23  1  0  0  0  0
 13 24  1  0  0  0  0
 14 24  2  0  0  0  0
 14 25  1  0  0  0  0
 15 23  2  0  0  0  0
 15 27  1  0  0  0  0
 16 26  1  0  0  0  0
 16 27  2  0  0  0  0
 17 26  1  0  0  0  0
 17 38  1  0  0  0  0
 17 39  1  0  0  0  0
 18 19  1  0  0  0  0
 18 20  1  0  0  0  0
 18 28  1  0  0  0  0
 19 21  1  0  0  0  0
 19 29  1  0  0  0  0
 20 30  1  0  0  0  0
 21 22  1  0  0  0  0
 21 31  1  0  0  0  0
 22 32  1  0  0  0  0
 22 33  1  0  0  0  0
 23 25  1  0  0  0  0
 24 36  1  0  0  0  0
 25 26  2  0  0  0  0
 27 37  1  0  0  0  0
M  CHG  3   8  -1  10  -1  11  -1
M  END
> <PUBCHEM_COMPOUND_CID>
7058055

> <PUBCHEM_CONFORMER_RMSD>
0.8

> <PUBCHEM_CONFORMER_DIVERSEORDER>
15
217
160
52
226
354
108
476
94
183
303
251
45
179
67
154
218
474
126
120
260
404
223
111
98
431
294
390
14
467
248
198
256
73
143
469
105
245
130
239
61
207
66
298
285
295
284
330
167
320
137
60
464
371
11
25
24
310
87
281
18
415
439
277
165
319
336
422
451
71
315
397
296
23
158
106
99
138
309
10
234
78
375
184
389
147
304
445
461
265
276
150
21
186
417
127
444
59
54
162
367
262
13
49
334
203
435
254
194
408
243
434
443
227
176
26
216
428
377
305
117
50
264
195
57
299
267
144
69
424
58
332
436
121
36
355
335
242
311
388
232
17
74
209
272
323
34
28
156
136
301
479
9
142
199
338
70
463
182
101
447
115
361
300
350
185
403
441
438
76
396
220
321
352
100
273
168
459
318
122
84
103
455
83
187
280
97
411
452
457
90
12
95
177
104
356
429
3
40
400
172
450
359
346
82
369
221
454
35
402
188
266
421
92
387
81
357
362
152
344
214
261
333
114
426
157
240
446
394
107
373
349
427
231
190
275
222
1
91
414
306
448
20
29
252
161
75
268
291
386
65
113
88
135
237
274
129
189
63
192
206
324
180
16
398
125
247
149
42
164
5
131
201
32
258
110
228
255
170
51
235
379
224
380
31
163
358
405
259
326
279
416
425
139
86
151
79
123
287
124
89
109
364
418
449
37
317
342
200
8
307
210
383
96
175
230
171
293
473
174
391
102
329
178
191
253
312
345
39
128
155
278
269
407
478
313
249
430
412
327
7
141
328
145
166
246
393
213
219
477
331
2
238
458
181
225
288
456
366
419
406
292
148
208
62
133
365
55
202
395
302
314
30
173
85
112
153
353
211
472
229
80
270
372
132
286
46
205
290
204
399
4
471
233
410
468
384
43
401
271
27
38
453
308
44
22
382
337
475
33
236
48
118
440
244
360
196
351
263
77
93
41
385
381
325
19
374
53
409
64
140
340
56
250
348
370
68
347
343
146
339
392
433
6
465
119
47
423
442
322
159
116
376
134
257
241
363
297
169
212
368
72
462
341
282
470
378
460
197
420
215
432
466
283
193
413
289
437
316

> <PUBCHEM_MMFF94_PARTIAL_CHARGES>
33
1 1.44
10 -1.03
11 -1.03
12 -1.03
13 0.05
14 -0.57
15 -0.57
16 -0.62
17 -0.9
18 0.28
19 0.28
2 1.37
20 0.54
21 0.28
22 0.28
23 0.11
24 0.04
25 0.23
26 0.41
27 0.47
3 -0.56
34 0.4
35 0.4
36 0.15
37 0.15
38 0.4
39 0.4
4 -0.68
5 -0.68
6 -0.55
7 -0.54
8 -0.95
9 -0.95

> <PUBCHEM_EFFECTIVE_ROTOR_COUNT>
7

> <PUBCHEM_PHARMACOPHORE_FEATURES>
19
1 10 acceptor
1 11 acceptor
1 12 acceptor
1 17 cation
1 17 donor
1 3 acceptor
1 4 acceptor
1 4 donor
1 5 acceptor
1 5 donor
1 8 acceptor
1 9 acceptor
3 13 14 24 cation
3 13 15 23 cation
3 15 16 27 cation
4 2 10 11 12 anion
5 13 14 23 24 25 rings
5 3 18 19 20 21 rings
6 15 16 23 25 26 27 rings

> <PUBCHEM_HEAVY_ATOM_COUNT>
27

> <PUBCHEM_ATOM_DEF_STEREO_COUNT>
4

> <PUBCHEM_ATOM_UDEF_STEREO_COUNT>
0

> <PUBCHEM_BOND_DEF_STEREO_COUNT>
0

> <PUBCHEM_BOND_UDEF_STEREO_COUNT>
0

> <PUBCHEM_ISOTOPIC_ATOM_COUNT>
0

> <PUBCHEM_COMPONENT_COUNT>
1

> <PUBCHEM_CACTVS_TAUTO_COUNT>
3

> <PUBCHEM_CONFORMER_ID>
006BB2870000000F

> <PUBCHEM_MMFF94_ENERGY>
56.2902

> <PUBCHEM_FEATURE_SELFOVERLAP>
97.097

> <PUBCHEM_SHAPE_FINGERPRINT>
10498660 4 18338796822777151872
10670039 82 18408889538181402596
10871710 139 18339359768499201847
10906281 52 18337399236894440049
11513181 2 18342741775813790390
12173636 292 18341035350978615495
12553582 1 18122620819195640891
12788726 201 18337103596034542107
13140716 1 18339077215954932291
13617811 41 18263071258271697637
14117953 113 17902504883574116388
14251757 5 18339648961357953086
14739800 52 18265319781336261136
14787075 74 18041279963191806995
14790565 3 18340494365820853225
14840074 17 18261690228490359713
15297060 5 18198354974312089904
15575132 122 18334299751537508021
17492 54 18337378414539515767
20101258 96 17904493152668590923
20511986 3 17895182338165519276
21864079 5 18260832626679288722
23557571 272 17914888966847983626
23559900 14 17979631230325799051
3298306 158 18057315094087821205
38570 142 17604450556434012486
469060 322 13118856612266645498
5048184 11 18335706005413562668
6034566 193 18266479632405963209
6287921 2 17979923709219835605
7064713 232 18264762182263198112
7808743 9 18410856607375189816
9981440 41 18335147444747660091

> <PUBCHEM_SHAPE_MULTIPOLES>
479.75
9.67
4.93
1.35
10.64
0.84
0.14
-6.75
1.62
-4.44
0.97
1.77
0.14
-1.6

> <PUBCHEM_SHAPE_SELFOVERLAP>
999.261

> <PUBCHEM_SHAPE_VOLUME>
274.8

> <PUBCHEM_COORDINATE_TYPE>
2
5
10

$$$$
