21604865
  -OEChem-09012620563D

 27 27  0     1  0  0  0  0  0999 V2000
   -3.7531    0.1283    0.0269 P   0  0  0  0  0  0  0  0  0  0  0  0
    0.4600    0.9776    0.1912 O   0  0  0  0  0  0  0  0  0  0  0  0
    0.9466   -2.6103   -0.3599 O   0  0  0  0  0  0  0  0  0  0  0  0
    3.5465   -1.7108    0.5274 O   0  0  0  0  0  0  0  0  0  0  0  0
    4.0635    1.0342   -0.4098 O   0  0  0  0  0  0  0  0  0  0  0  0
    1.9338    2.7861    0.2256 O   0  0  0  0  0  0  0  0  0  0  0  0
   -2.1461    0.2777   -0.3328 O   0  0  0  0  0  0  0  0  0  0  0  0
   -4.3907    1.3278   -0.6680 O   0  5  0  0  0  0  0  0  0  0  0  0
   -3.8149    0.1896    1.5503 O   0  5  0  0  0  0  0  0  0  0  0  0
   -4.1576   -1.2183   -0.5655 O   0  0  0  0  0  0  0  0  0  0  0  0
    1.2055   -1.3288    0.2075 C   0  0  1  0  0  0  0  0  0  0  0  0
    2.6173   -0.8830   -0.1739 C   0  0  1  0  0  0  0  0  0  0  0  0
    0.1642   -0.3299   -0.3027 C   0  0  1  0  0  0  0  0  0  0  0  0
    2.8557    0.5799    0.2003 C   0  0  2  0  0  0  0  0  0  0  0  0
    1.7110    1.4709   -0.2822 C   0  0  1  0  0  0  0  0  0  0  0  0
   -1.2419   -0.6912    0.1656 C   0  0  0  0  0  0  0  0  0  0  0  0
    1.1337   -1.4330    1.2970 H   0  0  0  0  0  0  0  0  0  0  0  0
    2.8048   -1.0500   -1.2410 H   0  0  0  0  0  0  0  0  0  0  0  0
    0.1570   -0.2940   -1.4008 H   0  0  0  0  0  0  0  0  0  0  0  0
    2.9910    0.6822    1.2836 H   0  0  0  0  0  0  0  0  0  0  0  0
    1.6975    1.5404   -1.3774 H   0  0  0  0  0  0  0  0  0  0  0  0
   -1.2942   -0.6808    1.2595 H   0  0  0  0  0  0  0  0  0  0  0  0
   -1.5356   -1.6809   -0.1970 H   0  0  0  0  0  0  0  0  0  0  0  0
    0.9942   -2.5257   -1.3275 H   0  0  0  0  0  0  0  0  0  0  0  0
    3.4162   -1.5714    1.4809 H   0  0  0  0  0  0  0  0  0  0  0  0
    3.9641    0.9514   -1.3736 H   0  0  0  0  0  0  0  0  0  0  0  0
    1.4666    3.4022   -0.3640 H   0  0  0  0  0  0  0  0  0  0  0  0
  1  7  1  0  0  0  0
  1  8  1  0  0  0  0
  1  9  1  0  0  0  0
  1 10  2  0  0  0  0
  2 13  1  0  0  0  0
  2 15  1  0  0  0  0
  3 11  1  0  0  0  0
  3 24  1  0  0  0  0
  4 12  1  0  0  0  0
  4 25  1  0  0  0  0
  5 14  1  0  0  0  0
  5 26  1  0  0  0  0
  6 15  1  0  0  0  0
  6 27  1  0  0  0  0
  7 16  1  0  0  0  0
 11 12  1  0  0  0  0
 11 13  1  0  0  0  0
 11 17  1  0  0  0  0
 12 14  1  0  0  0  0
 12 18  1  0  0  0  0
 13 16  1  0  0  0  0
 13 19  1  0  0  0  0
 14 15  1  0  0  0  0
 14 20  1  0  0  0  0
 15 21  1  0  0  0  0
 16 22  1  0  0  0  0
 16 23  1  0  0  0  0
M  CHG  2   8  -1   9  -1
M  END
> <PUBCHEM_COMPOUND_CID>
21604865

> <PUBCHEM_CONFORMER_RMSD>
0.6

> <PUBCHEM_CONFORMER_DIVERSEORDER>
1
43
42
32
22
38
8
20
23
37
10
39
18
31
34
15
6
35
16
3
24
26
41
25
9
27
17
5
14
4
12
7
30
21
28
13
33
40
11
19
36
29
2

> <PUBCHEM_MMFF94_PARTIAL_CHARGES>
20
1 1.37
10 -1.03
11 0.28
12 0.28
13 0.28
14 0.28
15 0.56
16 0.28
2 -0.56
24 0.4
25 0.4
26 0.4
27 0.4
3 -0.68
4 -0.68
5 -0.68
6 -0.68
7 -0.55
8 -1.03
9 -1.03

> <PUBCHEM_EFFECTIVE_ROTOR_COUNT>
4.2

> <PUBCHEM_PHARMACOPHORE_FEATURES>
14
1 10 acceptor
1 2 acceptor
1 3 acceptor
1 3 donor
1 4 acceptor
1 4 donor
1 5 acceptor
1 5 donor
1 6 acceptor
1 6 donor
1 8 acceptor
1 9 acceptor
4 1 8 9 10 anion
6 2 11 12 13 14 15 rings

> <PUBCHEM_HEAVY_ATOM_COUNT>
16

> <PUBCHEM_ATOM_DEF_STEREO_COUNT>
5

> <PUBCHEM_ATOM_UDEF_STEREO_COUNT>
0

> <PUBCHEM_BOND_DEF_STEREO_COUNT>
0

> <PUBCHEM_BOND_UDEF_STEREO_COUNT>
0

> <PUBCHEM_ISOTOPIC_ATOM_COUNT>
0

> <PUBCHEM_COMPONENT_COUNT>
1

> <PUBCHEM_CACTVS_TAUTO_COUNT>
1

> <PUBCHEM_CONFORMER_ID>
0149AA0100000001

> <PUBCHEM_MMFF94_ENERGY>
40.2832

> <PUBCHEM_FEATURE_SELFOVERLAP>
71.153

> <PUBCHEM_SHAPE_FINGERPRINT>
10219947 1 18410856538333940058
10608611 8 18334855030758173917
10980938 120 18411136935268545734
11471102 20 18410289190170373532
11615757 297 18272092707979084393
12654215 9 18334852767067666452
13380535 76 18335984267480351475
13922767 16 18409444769540457528
14144814 61 18343022177274918819
14251717 144 18411415115878902287
14415576 193 18408323272085824405
15219456 202 18259706687890698649
15442244 35 18268149751586034833
15501101 241 18259985959375133020
18186145 218 18272660060041940373
200 152 18201711873885259119
20279233 1 17676491644596136483
20606313 2 18410572873060870166
20645477 70 18337384946710272599
20871998 22 18054511309794708334
21524375 3 18197217164048880982
21639500 275 18340196483725550221
221490 88 18336551611264470363
22854114 111 18411136956706419921
23402655 69 18412823569173676453
25 1 18408322202776137038
293599 30 18337679736560464908
3060560 45 18273218595048725814
4990 188 17988655107297221014
5104073 3 18409448081382269243

> <PUBCHEM_SHAPE_MULTIPOLES>
280.3
8.04
2.18
0.79
7.09
0.15
-0.17
0.96
0
-1.74
0.09
0.55
0.01
-0.13

> <PUBCHEM_SHAPE_SELFOVERLAP>
548.494

> <PUBCHEM_SHAPE_VOLUME>
168.9

> <PUBCHEM_COORDINATE_TYPE>
2
5
10

$$$$
